Clear

New Circuit.ieee_european_lv_asymmetric basekv=11 pu=1.04999995232 phases=3 bus1=SOURCEBUS angle=0

New Transformer.Trafo phases=3 windings=2 XHL=4.01995038986
~ wdg=1 bus=SOURCEBUS conn=delta kv=11 kva=800.000011921 %r=0.20000000298
~ wdg=2 bus=1 conn=wye kv=0.416000008583 kva=800.000011921 %r=0.20000000298

New Line.LINE1 phases=3 bus1=1.1.2.3 bus2=2.1.2.3
~ r1=0.446000009775 x1=0.0710000023246 r0=1.50499999523 x0=0.082999996841 c1=0 c0=0 length=0.00109799997881 units=km

New Line.LINE2 phases=3 bus1=2.1.2.3 bus2=3.1.2.3
~ r1=0.446000009775 x1=0.0710000023246 r0=1.50499999523 x0=0.082999996841 c1=0 c0=0 length=0.000115110000479 units=km

New Line.LINE3 phases=3 bus1=3.1.2.3 bus2=4.1.2.3
~ r1=0.446000009775 x1=0.0710000023246 r0=1.50499999523 x0=0.082999996841 c1=0 c0=0 length=0.000107840001874 units=km

New Line.LINE4 phases=3 bus1=4.1.2.3 bus2=5.1.2.3
~ r1=0.446000009775 x1=0.0710000023246 r0=1.50499999523 x0=0.082999996841 c1=0 c0=0 length=9.4021001132e-05 units=km

New Line.LINE5 phases=3 bus1=5.1.2.3 bus2=6.1.2.3
~ r1=0.446000009775 x1=0.0710000023246 r0=1.50499999523 x0=0.082999996841 c1=0 c0=0 length=0.000148120001541 units=km

New Line.LINE6 phases=3 bus1=6.1.2.3 bus2=7.1.2.3
~ r1=0.446000009775 x1=0.0710000023246 r0=1.50499999523 x0=0.082999996841 c1=0 c0=0 length=0.0100862998515 units=km

New Line.LINE7 phases=3 bus1=7.1.2.3 bus2=8.1.2.3
~ r1=0.446000009775 x1=0.0710000023246 r0=1.50499999523 x0=0.082999996841 c1=0 c0=0 length=0.000451750005595 units=km

New Line.LINE8 phases=3 bus1=8.1.2.3 bus2=9.1.2.3
~ r1=0.446000009775 x1=0.0710000023246 r0=1.50499999523 x0=0.082999996841 c1=0 c0=0 length=0.000376000010874 units=km

New Line.LINE9 phases=3 bus1=9.1.2.3 bus2=10.1.2.3
~ r1=0.446000009775 x1=0.0710000023246 r0=1.50499999523 x0=0.082999996841 c1=0 c0=0 length=0.000329970003804 units=km

New Line.LINE10 phases=3 bus1=10.1.2.3 bus2=11.1.2.3
~ r1=0.446000009775 x1=0.0710000023246 r0=1.50499999523 x0=0.082999996841 c1=0 c0=0 length=0.000246220006375 units=km

New Line.LINE11 phases=3 bus1=11.1.2.3 bus2=12.1.2.3
~ r1=0.446000009775 x1=0.0710000023246 r0=1.50499999523 x0=0.082999996841 c1=0 c0=0 length=0.000231140002143 units=km

New Line.LINE12 phases=3 bus1=12.1.2.3 bus2=13.1.2.3
~ r1=0.446000009775 x1=0.0710000023246 r0=1.50499999523 x0=0.082999996841 c1=0 c0=0 length=0.000142129996675 units=km

New Line.LINE13 phases=3 bus1=13.1.2.3 bus2=14.1.2.3
~ r1=0.446000009775 x1=0.0710000023246 r0=1.50499999523 x0=0.082999996841 c1=0 c0=0 length=0.000353840005118 units=km

New Line.LINE14 phases=3 bus1=14.1.2.3 bus2=15.1.2.3
~ r1=0.446000009775 x1=0.0710000023246 r0=1.50499999523 x0=0.082999996841 c1=0 c0=0 length=0.0028663999401 units=km

New Line.LINE15 phases=3 bus1=15.1.2.3 bus2=16.1.2.3
~ r1=3.97000002861 x1=0.0989999994636 r0=3.97000002861 x0=0.0989999994636 c1=0 c0=0 length=9.6540003142e-05 units=km

New Line.LINE16 phases=3 bus1=15.1.2.3 bus2=17.1.2.3
~ r1=0.446000009775 x1=0.0710000023246 r0=1.50499999523 x0=0.082999996841 c1=0 c0=0 length=0.00347599992529 units=km

New Line.LINE17 phases=3 bus1=16.1.2.3 bus2=18.1.2.3
~ r1=3.97000002861 x1=0.0989999994636 r0=3.97000002861 x0=0.0989999994636 c1=0 c0=0 length=4.4044998504e-05 units=km

New Line.LINE18 phases=3 bus1=17.1.2.3 bus2=19.1.2.3
~ r1=0.446000009775 x1=0.0710000023246 r0=1.50499999523 x0=0.082999996841 c1=0 c0=0 length=0.000239169996348 units=km

New Line.LINE19 phases=3 bus1=18.1.2.3 bus2=20.1.2.3
~ r1=3.97000002861 x1=0.0989999994636 r0=3.97000002861 x0=0.0989999994636 c1=0 c0=0 length=4.6173998271e-05 units=km

New Line.LINE20 phases=3 bus1=19.1.2.3 bus2=21.1.2.3
~ r1=0.446000009775 x1=0.0710000023246 r0=1.50499999523 x0=0.082999996841 c1=0 c0=0 length=0.000268559990218 units=km

New Line.LINE21 phases=3 bus1=20.1.2.3 bus2=22.1.2.3
~ r1=3.97000002861 x1=0.0989999994636 r0=3.97000002861 x0=0.0989999994636 c1=0 c0=0 length=4.197599992e-05 units=km

New Line.LINE22 phases=3 bus1=21.1.2.3 bus2=23.1.2.3
~ r1=0.446000009775 x1=0.0710000023246 r0=1.50499999523 x0=0.082999996841 c1=0 c0=0 length=0.000437270005932 units=km

New Line.LINE23 phases=3 bus1=22.1.2.3 bus2=24.1.2.3
~ r1=3.97000002861 x1=0.0989999994636 r0=3.97000002861 x0=0.0989999994636 c1=0 c0=0 length=5.1244998758e-05 units=km

New Line.LINE24 phases=3 bus1=23.1.2.3 bus2=25.1.2.3
~ r1=0.446000009775 x1=0.0710000023246 r0=1.50499999523 x0=0.082999996841 c1=0 c0=0 length=0.000795500003733 units=km

New Line.LINE25 phases=3 bus1=24.1.2.3 bus2=26.1.2.3
~ r1=3.97000002861 x1=0.0989999994636 r0=3.97000002861 x0=0.0989999994636 c1=0 c0=0 length=5.5902000895e-05 units=km

New Line.LINE26 phases=3 bus1=25.1.2.3 bus2=27.1.2.3
~ r1=1.14999997616 x1=0.0879999995232 r0=1.20000004768 x0=0.0879999995232 c1=0 c0=0 length=0.00590489991009 units=km

New Line.LINE27 phases=3 bus1=25.1.2.3 bus2=28.1.2.3
~ r1=0.446000009775 x1=0.0710000023246 r0=1.50499999523 x0=0.082999996841 c1=0 c0=0 length=0.00996860023588 units=km

New Line.LINE28 phases=3 bus1=26.1.2.3 bus2=29.1.2.3
~ r1=3.97000002861 x1=0.0989999994636 r0=3.97000002861 x0=0.0989999994636 c1=0 c0=0 length=5.4561998695e-05 units=km

New Line.LINE29 phases=3 bus1=27.1.2.3 bus2=30.1.2.3
~ r1=1.14999997616 x1=0.0879999995232 r0=1.20000004768 x0=0.0879999995232 c1=0 c0=0 length=0.00162650004495 units=km

New Line.LINE30 phases=3 bus1=27.1.2.3 bus2=31.1.2.3
~ r1=1.14999997616 x1=0.0879999995232 r0=1.20000004768 x0=0.0879999995232 c1=0 c0=0 length=0.00158469995949 units=km

New Line.LINE31 phases=3 bus1=28.1.2.3 bus2=32.1.2.3
~ r1=0.446000009775 x1=0.0710000023246 r0=1.50499999523 x0=0.082999996841 c1=0 c0=0 length=0.00265379995108 units=km

New Line.LINE32 phases=3 bus1=29.1.2.3 bus2=33.1.2.3
~ r1=3.97000002861 x1=0.0989999994636 r0=3.97000002861 x0=0.0989999994636 c1=0 c0=0 length=0.000146289996337 units=km

New Line.LINE33 phases=3 bus1=30.1.2.3 bus2=34.1.2.3
~ r1=1.14999997616 x1=0.0879999995232 r0=1.20000004768 x0=0.0879999995232 c1=0 c0=0 length=0.00372479995713 units=km

New Line.LINE34 phases=3 bus1=31.1.2.3 bus2=35.1.2.3
~ r1=1.14999997616 x1=0.0879999995232 r0=1.20000004768 x0=0.0879999995232 c1=0 c0=0 length=5.3666000895e-05 units=km

New Line.LINE35 phases=3 bus1=32.1.2.3 bus2=36.1.2.3
~ r1=1.14999997616 x1=0.0879999995232 r0=1.20000004768 x0=0.0879999995232 c1=0 c0=0 length=0.00572649994865 units=km

New Line.LINE36 phases=3 bus1=32.1.2.3 bus2=37.1.2.3
~ r1=0.446000009775 x1=0.0710000023246 r0=1.50499999523 x0=0.082999996841 c1=0 c0=0 length=0.00802440010011 units=km

New Line.LINE37 phases=3 bus1=33.1.2.3 bus2=38.1.2.3
~ r1=3.97000002861 x1=0.0989999994636 r0=3.97000002861 x0=0.0989999994636 c1=0 c0=0 length=0.000136479997309 units=km

New Line.LINE38 phases=3 bus1=35.1.2.3 bus2=39.1.2.3
~ r1=1.14999997616 x1=0.0879999995232 r0=1.20000004768 x0=0.0879999995232 c1=0 c0=0 length=7.7162003436e-05 units=km

New Line.LINE39 phases=3 bus1=36.1.2.3 bus2=40.1.2.3
~ r1=1.14999997616 x1=0.0879999995232 r0=1.20000004768 x0=0.0879999995232 c1=0 c0=0 length=0.000400040007662 units=km

New Line.LINE40 phases=3 bus1=36.1.2.3 bus2=41.1.2.3
~ r1=1.14999997616 x1=0.0879999995232 r0=1.20000004768 x0=0.0879999995232 c1=0 c0=0 length=0.00180630001705 units=km

New Line.LINE41 phases=3 bus1=37.1.2.3 bus2=42.1.2.3
~ r1=0.446000009775 x1=0.0710000023246 r0=1.50499999523 x0=0.082999996841 c1=0 c0=0 length=0.00556840002537 units=km

New Line.LINE42 phases=3 bus1=37.1.2.3 bus2=43.1.2.3
~ r1=0.165999993682 x1=0.0680000036955 r0=0.579999983311 x0=0.0780000016093 c1=0 c0=0 length=0.000216750006075 units=km

New Line.LINE43 phases=3 bus1=38.1.2.3 bus2=44.1.2.3
~ r1=3.97000002861 x1=0.0989999994636 r0=3.97000002861 x0=0.0989999994636 c1=0 c0=0 length=3.38380014e-05 units=km

New Line.LINE44 phases=3 bus1=39.1.2.3 bus2=45.1.2.3
~ r1=1.14999997616 x1=0.0879999995232 r0=1.20000004768 x0=0.0879999995232 c1=0 c0=0 length=9.8955002613e-05 units=km

New Line.LINE45 phases=3 bus1=40.1.2.3 bus2=46.1.2.3
~ r1=1.14999997616 x1=0.0879999995232 r0=1.20000004768 x0=0.0879999995232 c1=0 c0=0 length=0.000180310002179 units=km

New Line.LINE46 phases=3 bus1=41.1.2.3 bus2=47.1.2.3
~ r1=1.14999997616 x1=0.0879999995232 r0=1.20000004768 x0=0.0879999995232 c1=0 c0=0 length=0.00434629991651 units=km

New Line.LINE47 phases=3 bus1=42.1.2.3 bus2=48.1.2.3
~ r1=0.446000009775 x1=0.0710000023246 r0=1.50499999523 x0=0.082999996841 c1=0 c0=0 length=0.00420780014247 units=km

New Line.LINE48 phases=3 bus1=43.1.2.3 bus2=49.1.2.3
~ r1=0.165999993682 x1=0.0680000036955 r0=0.579999983311 x0=0.0780000016093 c1=0 c0=0 length=0.000104359998659 units=km

New Line.LINE49 phases=3 bus1=44.1.2.3 bus2=50.1.2.3
~ r1=3.97000002861 x1=0.0989999994636 r0=3.97000002861 x0=0.0989999994636 c1=0 c0=0 length=4.8104000598e-05 units=km

New Line.LINE50 phases=3 bus1=45.1.2.3 bus2=51.1.2.3
~ r1=1.14999997616 x1=0.0879999995232 r0=1.20000004768 x0=0.0879999995232 c1=0 c0=0 length=0.000241000001552 units=km

New Line.LINE51 phases=3 bus1=46.1.2.3 bus2=52.1.2.3
~ r1=1.14999997616 x1=0.0879999995232 r0=1.20000004768 x0=0.0879999995232 c1=0 c0=0 length=0.000191090002772 units=km

New Line.LINE52 phases=3 bus1=48.1.2.3 bus2=53.1.2.3
~ r1=0.446000009775 x1=0.0710000023246 r0=1.50499999523 x0=0.082999996841 c1=0 c0=0 length=0.000606679997873 units=km

New Line.LINE53 phases=3 bus1=48.1.2.3 bus2=54.1.2.3
~ r1=0.446000009775 x1=0.0710000023246 r0=1.50499999523 x0=0.082999996841 c1=0 c0=0 length=0.000639490026515 units=km

New Line.LINE54 phases=3 bus1=49.1.2.3 bus2=55.1.2.3
~ r1=0.165999993682 x1=0.0680000036955 r0=0.579999983311 x0=0.0780000016093 c1=0 c0=0 length=0.000116249997518 units=km

New Line.LINE55 phases=3 bus1=50.1.2.3 bus2=56.1.2.3
~ r1=3.97000002861 x1=0.0989999994636 r0=3.97000002861 x0=0.0989999994636 c1=0 c0=0 length=8.7663996965e-05 units=km

New Line.LINE56 phases=3 bus1=51.1.2.3 bus2=57.1.2.3
~ r1=1.14999997616 x1=0.0879999995232 r0=1.20000004768 x0=0.0879999995232 c1=0 c0=0 length=0.000206340002478 units=km

New Line.LINE57 phases=3 bus1=52.1.2.3 bus2=58.1.2.3
~ r1=1.14999997616 x1=0.0879999995232 r0=1.20000004768 x0=0.0879999995232 c1=0 c0=0 length=0.000182000003406 units=km

New Line.LINE58 phases=3 bus1=53.1.2.3 bus2=59.1.2.3
~ r1=0.446000009775 x1=0.0710000023246 r0=1.50499999523 x0=0.082999996841 c1=0 c0=0 length=0.00274810008705 units=km

New Line.LINE59 phases=3 bus1=54.1.2.3 bus2=60.1.2.3
~ r1=0.446000009775 x1=0.0710000023246 r0=1.50499999523 x0=0.082999996841 c1=0 c0=0 length=6.5368003561e-05 units=km

New Line.LINE60 phases=3 bus1=55.1.2.3 bus2=61.1.2.3
~ r1=0.165999993682 x1=0.0680000036955 r0=0.579999983311 x0=0.0780000016093 c1=0 c0=0 length=0.000100279998151 units=km

New Line.LINE61 phases=3 bus1=56.1.2.3 bus2=62.1.2.3
~ r1=3.97000002861 x1=0.0989999994636 r0=3.97000002861 x0=0.0989999994636 c1=0 c0=0 length=7.7999997302e-05 units=km

New Line.LINE62 phases=3 bus1=57.1.2.3 bus2=63.1.2.3
~ r1=1.14999997616 x1=0.0879999995232 r0=1.20000004768 x0=0.0879999995232 c1=0 c0=0 length=0.000989119987935 units=km

New Line.LINE63 phases=3 bus1=58.1.2.3 bus2=64.1.2.3
~ r1=1.14999997616 x1=0.0879999995232 r0=1.20000004768 x0=0.0879999995232 c1=0 c0=0 length=0.000109000000521 units=km

New Line.LINE64 phases=3 bus1=59.1.2.3 bus2=65.1.2.3
~ r1=0.446000009775 x1=0.0710000023246 r0=1.50499999523 x0=0.082999996841 c1=0 c0=0 length=0.000558679981623 units=km

New Line.LINE65 phases=3 bus1=59.1.2.3 bus2=66.1.2.3
~ r1=1.14999997616 x1=0.0879999995232 r0=1.20000004768 x0=0.0879999995232 c1=0 c0=0 length=0.00825829990208 units=km

New Line.LINE66 phases=3 bus1=60.1.2.3 bus2=67.1.2.3
~ r1=0.446000009775 x1=0.0710000023246 r0=1.50499999523 x0=0.082999996841 c1=0 c0=0 length=7.4000003224e-05 units=km

New Line.LINE67 phases=3 bus1=61.1.2.3 bus2=68.1.2.3
~ r1=0.165999993682 x1=0.0680000036955 r0=0.579999983311 x0=0.0780000016093 c1=0 c0=0 length=9.6042000223e-05 units=km

New Line.LINE68 phases=3 bus1=62.1.2.3 bus2=69.1.2.3
~ r1=3.97000002861 x1=0.0989999994636 r0=3.97000002861 x0=0.0989999994636 c1=0 c0=0 length=8.3241000539e-05 units=km

New Line.LINE69 phases=3 bus1=63.1.2.3 bus2=70.1.2.3
~ r1=1.14999997616 x1=0.0879999995232 r0=1.20000004768 x0=0.0879999995232 c1=0 c0=0 length=0.0034962000791 units=km

New Line.LINE70 phases=3 bus1=64.1.2.3 bus2=71.1.2.3
~ r1=1.14999997616 x1=0.0879999995232 r0=1.20000004768 x0=0.0879999995232 c1=0 c0=0 length=0.000213849998545 units=km

New Line.LINE71 phases=3 bus1=65.1.2.3 bus2=72.1.2.3
~ r1=0.446000009775 x1=0.0710000023246 r0=1.50499999523 x0=0.082999996841 c1=0 c0=0 length=0.00660060020164 units=km

New Line.LINE72 phases=3 bus1=66.1.2.3 bus2=73.1.2.3
~ r1=1.14999997616 x1=0.0879999995232 r0=1.20000004768 x0=0.0879999995232 c1=0 c0=0 length=0.00403659977019 units=km

New Line.LINE73 phases=3 bus1=66.1.2.3 bus2=74.1.2.3
~ r1=1.14999997616 x1=0.0879999995232 r0=1.20000004768 x0=0.0879999995232 c1=0 c0=0 length=0.00403659977019 units=km

New Line.LINE74 phases=3 bus1=67.1.2.3 bus2=75.1.2.3
~ r1=0.446000009775 x1=0.0710000023246 r0=1.50499999523 x0=0.082999996841 c1=0 c0=0 length=0.000179509996087 units=km

New Line.LINE75 phases=3 bus1=68.1.2.3 bus2=76.1.2.3
~ r1=0.165999993682 x1=0.0680000036955 r0=0.579999983311 x0=0.0780000016093 c1=0 c0=0 length=0.000235510000493 units=km

New Line.LINE76 phases=3 bus1=69.1.2.3 bus2=77.1.2.3
~ r1=3.97000002861 x1=0.0989999994636 r0=3.97000002861 x0=0.0989999994636 c1=0 c0=0 length=0.000389069988159 units=km

New Line.LINE77 phases=3 bus1=71.1.2.3 bus2=78.1.2.3
~ r1=1.14999997616 x1=0.0879999995232 r0=1.20000004768 x0=0.0879999995232 c1=0 c0=0 length=0.0010837999871 units=km

New Line.LINE78 phases=3 bus1=72.1.2.3 bus2=79.1.2.3
~ r1=0.446000009775 x1=0.0710000023246 r0=1.50499999523 x0=0.082999996841 c1=0 c0=0 length=0.00230080005713 units=km

New Line.LINE79 phases=3 bus1=75.1.2.3 bus2=80.1.2.3
~ r1=0.446000009775 x1=0.0710000023246 r0=1.50499999523 x0=0.082999996841 c1=0 c0=0 length=0.00010361999739 units=km

New Line.LINE80 phases=3 bus1=76.1.2.3 bus2=81.1.2.3
~ r1=0.165999993682 x1=0.0680000036955 r0=0.579999983311 x0=0.0780000016093 c1=0 c0=0 length=0.000746899982914 units=km

New Line.LINE81 phases=3 bus1=77.1.2.3 bus2=82.1.2.3
~ r1=3.97000002861 x1=0.0989999994636 r0=3.97000002861 x0=0.0989999994636 c1=0 c0=0 length=0.000510880025104 units=km

New Line.LINE82 phases=3 bus1=78.1.2.3 bus2=83.1.2.3
~ r1=1.14999997616 x1=0.0879999995232 r0=1.20000004768 x0=0.0879999995232 c1=0 c0=0 length=0.00408399989828 units=km

New Line.LINE83 phases=3 bus1=79.1.2.3 bus2=84.1.2.3
~ r1=0.446000009775 x1=0.0710000023246 r0=1.50499999523 x0=0.082999996841 c1=0 c0=0 length=0.000502109993249 units=km

New Line.LINE84 phases=3 bus1=80.1.2.3 bus2=85.1.2.3
~ r1=0.446000009775 x1=0.0710000023246 r0=1.50499999523 x0=0.082999996841 c1=0 c0=0 length=0.000111219997052 units=km

New Line.LINE85 phases=3 bus1=81.1.2.3 bus2=86.1.2.3
~ r1=0.165999993682 x1=0.0680000036955 r0=0.579999983311 x0=0.0780000016093 c1=0 c0=0 length=0.00143880001269 units=km

New Line.LINE86 phases=3 bus1=82.1.2.3 bus2=87.1.2.3
~ r1=3.97000002861 x1=0.0989999994636 r0=3.97000002861 x0=0.0989999994636 c1=0 c0=0 length=0.000310450006509 units=km

New Line.LINE87 phases=3 bus1=84.1.2.3 bus2=88.1.2.3
~ r1=0.446000009775 x1=0.0710000023246 r0=1.50499999523 x0=0.082999996841 c1=0 c0=0 length=0.00101819995325 units=km

New Line.LINE88 phases=3 bus1=85.1.2.3 bus2=89.1.2.3
~ r1=0.446000009775 x1=0.0710000023246 r0=1.50499999523 x0=0.082999996841 c1=0 c0=0 length=0.000104799997644 units=km

New Line.LINE89 phases=3 bus1=86.1.2.3 bus2=90.1.2.3
~ r1=0.165999993682 x1=0.0680000036955 r0=0.579999983311 x0=0.0780000016093 c1=0 c0=0 length=0.000342510000337 units=km

New Line.LINE90 phases=3 bus1=87.1.2.3 bus2=91.1.2.3
~ r1=3.97000002861 x1=0.0989999994636 r0=3.97000002861 x0=0.0989999994636 c1=0 c0=0 length=0.000112059999083 units=km

New Line.LINE91 phases=3 bus1=88.1.2.3 bus2=92.1.2.3
~ r1=0.446000009775 x1=0.0710000023246 r0=1.50499999523 x0=0.082999996841 c1=0 c0=0 length=0.000960209988989 units=km

New Line.LINE92 phases=3 bus1=90.1.2.3 bus2=93.1.2.3
~ r1=0.165999993682 x1=0.0680000036955 r0=0.579999983311 x0=0.0780000016093 c1=0 c0=0 length=6.5307001933e-05 units=km

New Line.LINE93 phases=3 bus1=91.1.2.3 bus2=94.1.2.3
~ r1=3.97000002861 x1=0.0989999994636 r0=3.97000002861 x0=0.0989999994636 c1=0 c0=0 length=3.4785000025e-05 units=km

New Line.LINE94 phases=3 bus1=92.1.2.3 bus2=95.1.2.3
~ r1=0.446000009775 x1=0.0710000023246 r0=1.50499999523 x0=0.082999996841 c1=0 c0=0 length=0.000558110012207 units=km

New Line.LINE95 phases=3 bus1=93.1.2.3 bus2=96.1.2.3
~ r1=0.165999993682 x1=0.0680000036955 r0=0.579999983311 x0=0.0780000016093 c1=0 c0=0 length=8.6052001279e-05 units=km

New Line.LINE96 phases=3 bus1=94.1.2.3 bus2=97.1.2.3
~ r1=3.97000002861 x1=0.0989999994636 r0=3.97000002861 x0=0.0989999994636 c1=0 c0=0 length=3.6770001316e-05 units=km

New Line.LINE97 phases=3 bus1=95.1.2.3 bus2=98.1.2.3
~ r1=0.446000009775 x1=0.0710000023246 r0=1.50499999523 x0=0.082999996841 c1=0 c0=0 length=0.000368590001017 units=km

New Line.LINE98 phases=3 bus1=96.1.2.3 bus2=99.1.2.3
~ r1=0.165999993682 x1=0.0680000036955 r0=0.579999983311 x0=0.0780000016093 c1=0 c0=0 length=3.7215999328e-05 units=km

New Line.LINE99 phases=3 bus1=97.1.2.3 bus2=100.1.2.3
~ r1=3.97000002861 x1=0.0989999994636 r0=3.97000002861 x0=0.0989999994636 c1=0 c0=0 length=8.9588000264e-05 units=km

New Line.LINE100 phases=3 bus1=98.1.2.3 bus2=101.1.2.3
~ r1=0.446000009775 x1=0.0710000023246 r0=1.50499999523 x0=0.082999996841 c1=0 c0=0 length=0.000508919998538 units=km

New Line.LINE101 phases=3 bus1=99.1.2.3 bus2=102.1.2.3
~ r1=0.165999993682 x1=0.0680000036955 r0=0.579999983311 x0=0.0780000016093 c1=0 c0=0 length=0.00508189992979 units=km

New Line.LINE102 phases=3 bus1=100.1.2.3 bus2=103.1.2.3
~ r1=3.97000002861 x1=0.0989999994636 r0=3.97000002861 x0=0.0989999994636 c1=0 c0=0 length=0.000285829999484 units=km

New Line.LINE103 phases=3 bus1=101.1.2.3 bus2=104.1.2.3
~ r1=0.0890000015497 x1=0.0675000026822 r0=0.319000005722 x0=0.0759999975562 c1=0 c0=0 length=0.000288379989797 units=km

New Line.LINE104 phases=3 bus1=101.1.2.3 bus2=105.1.2.3
~ r1=0.446000009775 x1=0.0710000023246 r0=1.50499999523 x0=0.082999996841 c1=0 c0=0 length=0.000336019991664 units=km

New Line.LINE105 phases=3 bus1=102.1.2.3 bus2=106.1.2.3
~ r1=0.165999993682 x1=0.0680000036955 r0=0.579999983311 x0=0.0780000016093 c1=0 c0=0 length=0.000221080001211 units=km

New Line.LINE106 phases=3 bus1=104.1.2.3 bus2=107.1.2.3
~ r1=0.0890000015497 x1=0.0675000026822 r0=0.319000005722 x0=0.0759999975562 c1=0 c0=0 length=0.000348900008248 units=km

New Line.LINE107 phases=3 bus1=105.1.2.3 bus2=108.1.2.3
~ r1=0.446000009775 x1=0.0710000023246 r0=1.50499999523 x0=0.082999996841 c1=0 c0=0 length=0.000190539998584 units=km

New Line.LINE108 phases=3 bus1=106.1.2.3 bus2=109.1.2.3
~ r1=0.165999993682 x1=0.0680000036955 r0=0.579999983311 x0=0.0780000016093 c1=0 c0=0 length=0.000450849998742 units=km

New Line.LINE109 phases=3 bus1=107.1.2.3 bus2=110.1.2.3
~ r1=0.0890000015497 x1=0.0675000026822 r0=0.319000005722 x0=0.0759999975562 c1=0 c0=0 length=0.000404399994295 units=km

New Line.LINE110 phases=3 bus1=108.1.2.3 bus2=111.1.2.3
~ r1=0.446000009775 x1=0.0710000023246 r0=1.50499999523 x0=0.082999996841 c1=0 c0=0 length=0.00751820020378 units=km

New Line.LINE111 phases=3 bus1=109.1.2.3 bus2=112.1.2.3
~ r1=0.165999993682 x1=0.0680000036955 r0=0.579999983311 x0=0.0780000016093 c1=0 c0=0 length=0.0119765996933 units=km

New Line.LINE112 phases=3 bus1=110.1.2.3 bus2=113.1.2.3
~ r1=0.0890000015497 x1=0.0675000026822 r0=0.319000005722 x0=0.0759999975562 c1=0 c0=0 length=0.000616590026766 units=km

New Line.LINE113 phases=3 bus1=111.1.2.3 bus2=114.1.2.3
~ r1=0.446000009775 x1=0.0710000023246 r0=1.50499999523 x0=0.082999996841 c1=0 c0=0 length=0.000753159984015 units=km

New Line.LINE114 phases=3 bus1=112.1.2.3 bus2=115.1.2.3
~ r1=0.165999993682 x1=0.0680000036955 r0=0.579999983311 x0=0.0780000016093 c1=0 c0=0 length=0.0106613002717 units=km

New Line.LINE115 phases=3 bus1=113.1.2.3 bus2=116.1.2.3
~ r1=0.0890000015497 x1=0.0675000026822 r0=0.319000005722 x0=0.0759999975562 c1=0 c0=0 length=0.00079270999413 units=km

New Line.LINE116 phases=3 bus1=114.1.2.3 bus2=117.1.2.3
~ r1=0.0890000015497 x1=0.0675000026822 r0=0.319000005722 x0=0.0759999975562 c1=0 c0=0 length=0.00110560003668 units=km

New Line.LINE117 phases=3 bus1=114.1.2.3 bus2=118.1.2.3
~ r1=0.273999989033 x1=0.0729999989271 r0=0.958999991417 x0=0.0790000036359 c1=0 c0=0 length=0.00365559989587 units=km

New Line.LINE118 phases=3 bus1=115.1.2.3 bus2=119.1.2.3
~ r1=0.165999993682 x1=0.0680000036955 r0=0.579999983311 x0=0.0780000016093 c1=0 c0=0 length=0.00099464005325 units=km

New Line.LINE119 phases=3 bus1=116.1.2.3 bus2=120.1.2.3
~ r1=0.0890000015497 x1=0.0675000026822 r0=0.319000005722 x0=0.0759999975562 c1=0 c0=0 length=0.000569090014324 units=km

New Line.LINE120 phases=3 bus1=117.1.2.3 bus2=121.1.2.3
~ r1=3.97000002861 x1=0.0989999994636 r0=3.97000002861 x0=0.0989999994636 c1=0 c0=0 length=0.000194809996174 units=km

New Line.LINE121 phases=3 bus1=117.1.2.3 bus2=122.1.2.3
~ r1=0.0890000015497 x1=0.0675000026822 r0=0.319000005722 x0=0.0759999975562 c1=0 c0=0 length=0.000538309977856 units=km

New Line.LINE122 phases=3 bus1=118.1.2.3 bus2=123.1.2.3
~ r1=0.273999989033 x1=0.0729999989271 r0=0.958999991417 x0=0.0790000036359 c1=0 c0=0 length=0.00659239990637 units=km

New Line.LINE123 phases=3 bus1=119.1.2.3 bus2=124.1.2.3
~ r1=0.165999993682 x1=0.0680000036955 r0=0.579999983311 x0=0.0780000016093 c1=0 c0=0 length=0.000724799989257 units=km

New Line.LINE124 phases=3 bus1=120.1.2.3 bus2=125.1.2.3
~ r1=0.0890000015497 x1=0.0675000026822 r0=0.319000005722 x0=0.0759999975562 c1=0 c0=0 length=0.000804119976237 units=km

New Line.LINE125 phases=3 bus1=121.1.2.3 bus2=126.1.2.3
~ r1=3.97000002861 x1=0.0989999994636 r0=3.97000002861 x0=0.0989999994636 c1=0 c0=0 length=0.000168690006831 units=km

New Line.LINE126 phases=3 bus1=122.1.2.3 bus2=127.1.2.3
~ r1=0.0890000015497 x1=0.0675000026822 r0=0.319000005722 x0=0.0759999975562 c1=0 c0=0 length=0.00252879993059 units=km

New Line.LINE127 phases=3 bus1=123.1.2.3 bus2=128.1.2.3
~ r1=0.273999989033 x1=0.0729999989271 r0=0.958999991417 x0=0.0790000036359 c1=0 c0=0 length=0.00296459998935 units=km

New Line.LINE128 phases=3 bus1=124.1.2.3 bus2=129.1.2.3
~ r1=0.165999993682 x1=0.0680000036955 r0=0.579999983311 x0=0.0780000016093 c1=0 c0=0 length=0.000625120010227 units=km

New Line.LINE129 phases=3 bus1=125.1.2.3 bus2=130.1.2.3
~ r1=0.0890000015497 x1=0.0675000026822 r0=0.319000005722 x0=0.0759999975562 c1=0 c0=0 length=0.000869999988936 units=km

New Line.LINE130 phases=3 bus1=126.1.2.3 bus2=131.1.2.3
~ r1=3.97000002861 x1=0.0989999994636 r0=3.97000002861 x0=0.0989999994636 c1=0 c0=0 length=0.000119149997772 units=km

New Line.LINE131 phases=3 bus1=127.1.2.3 bus2=132.1.2.3
~ r1=1.14999997616 x1=0.0879999995232 r0=1.20000004768 x0=0.0879999995232 c1=0 c0=0 length=0.00382119999267 units=km

New Line.LINE132 phases=3 bus1=127.1.2.3 bus2=133.1.2.3
~ r1=0.0890000015497 x1=0.0675000026822 r0=0.319000005722 x0=0.0759999975562 c1=0 c0=0 length=0.00717819994315 units=km

New Line.LINE133 phases=3 bus1=128.1.2.3 bus2=134.1.2.3
~ r1=0.273999989033 x1=0.0729999989271 r0=0.958999991417 x0=0.0790000036359 c1=0 c0=0 length=0.000882050022483 units=km

New Line.LINE134 phases=3 bus1=129.1.2.3 bus2=135.1.2.3
~ r1=0.165999993682 x1=0.0680000036955 r0=0.579999983311 x0=0.0780000016093 c1=0 c0=0 length=0.00192029995378 units=km

New Line.LINE135 phases=3 bus1=130.1.2.3 bus2=136.1.2.3
~ r1=0.0890000015497 x1=0.0675000026822 r0=0.319000005722 x0=0.0759999975562 c1=0 c0=0 length=0.000820479996037 units=km

New Line.LINE136 phases=3 bus1=131.1.2.3 bus2=137.1.2.3
~ r1=3.97000002861 x1=0.0989999994636 r0=3.97000002861 x0=0.0989999994636 c1=0 c0=0 length=0.000184360003914 units=km

New Line.LINE137 phases=3 bus1=132.1.2.3 bus2=138.1.2.3
~ r1=1.14999997616 x1=0.0879999995232 r0=1.20000004768 x0=0.0879999995232 c1=0 c0=0 length=0.000329080008669 units=km

New Line.LINE138 phases=3 bus1=133.1.2.3 bus2=139.1.2.3
~ r1=0.0890000015497 x1=0.0675000026822 r0=0.319000005722 x0=0.0759999975562 c1=0 c0=0 length=0.00534019991756 units=km

New Line.LINE139 phases=3 bus1=134.1.2.3 bus2=140.1.2.3
~ r1=0.273999989033 x1=0.0729999989271 r0=0.958999991417 x0=0.0790000036359 c1=0 c0=0 length=0.000995659967884 units=km

New Line.LINE140 phases=3 bus1=135.1.2.3 bus2=141.1.2.3
~ r1=0.165999993682 x1=0.0680000036955 r0=0.579999983311 x0=0.0780000016093 c1=0 c0=0 length=0.00141270004678 units=km

New Line.LINE141 phases=3 bus1=136.1.2.3 bus2=142.1.2.3
~ r1=0.0890000015497 x1=0.0675000026822 r0=0.319000005722 x0=0.0759999975562 c1=0 c0=0 length=0.0013490000274 units=km

New Line.LINE142 phases=3 bus1=137.1.2.3 bus2=143.1.2.3
~ r1=3.97000002861 x1=0.0989999994636 r0=3.97000002861 x0=0.0989999994636 c1=0 c0=0 length=0.000217809996684 units=km

New Line.LINE143 phases=3 bus1=138.1.2.3 bus2=144.1.2.3
~ r1=1.14999997616 x1=0.0879999995232 r0=1.20000004768 x0=0.0879999995232 c1=0 c0=0 length=0.00032289000228 units=km

New Line.LINE144 phases=3 bus1=139.1.2.3 bus2=145.1.2.3
~ r1=0.0890000015497 x1=0.0675000026822 r0=0.319000005722 x0=0.0759999975562 c1=0 c0=0 length=0.00357619998977 units=km

New Line.LINE145 phases=3 bus1=140.1.2.3 bus2=146.1.2.3
~ r1=0.273999989033 x1=0.0729999989271 r0=0.958999991417 x0=0.0790000036359 c1=0 c0=0 length=0.000936400028877 units=km

New Line.LINE146 phases=3 bus1=141.1.2.3 bus2=147.1.2.3
~ r1=0.165999993682 x1=0.0680000036955 r0=0.579999983311 x0=0.0780000016093 c1=0 c0=0 length=0.000240530003794 units=km

New Line.LINE147 phases=3 bus1=142.1.2.3 bus2=148.1.2.3
~ r1=0.0890000015497 x1=0.0675000026822 r0=0.319000005722 x0=0.0759999975562 c1=0 c0=0 length=0.00641420017928 units=km

New Line.LINE148 phases=3 bus1=143.1.2.3 bus2=149.1.2.3
~ r1=3.97000002861 x1=0.0989999994636 r0=3.97000002861 x0=0.0989999994636 c1=0 c0=0 length=0.000194010004634 units=km

New Line.LINE149 phases=3 bus1=144.1.2.3 bus2=150.1.2.3
~ r1=1.14999997616 x1=0.0879999995232 r0=1.20000004768 x0=0.0879999995232 c1=0 c0=0 length=0.000260720000369 units=km

New Line.LINE150 phases=3 bus1=145.1.2.3 bus2=151.1.2.3
~ r1=0.0890000015497 x1=0.0675000026822 r0=0.319000005722 x0=0.0759999975562 c1=0 c0=0 length=0.00357130006887 units=km

New Line.LINE151 phases=3 bus1=145.1.2.3 bus2=152.1.2.3
~ r1=1.14999997616 x1=0.0879999995232 r0=1.20000004768 x0=0.0879999995232 c1=0 c0=0 length=0.00513140019029 units=km

New Line.LINE152 phases=3 bus1=146.1.2.3 bus2=153.1.2.3
~ r1=0.273999989033 x1=0.0729999989271 r0=0.958999991417 x0=0.0790000036359 c1=0 c0=0 length=0.00109260005411 units=km

New Line.LINE153 phases=3 bus1=147.1.2.3 bus2=154.1.2.3
~ r1=0.165999993682 x1=0.0680000036955 r0=0.579999983311 x0=0.0780000016093 c1=0 c0=0 length=8.3095997979e-05 units=km

New Line.LINE154 phases=3 bus1=148.1.2.3 bus2=155.1.2.3
~ r1=0.0890000015497 x1=0.0675000026822 r0=0.319000005722 x0=0.0759999975562 c1=0 c0=0 length=0.00139730004594 units=km

New Line.LINE155 phases=3 bus1=149.1.2.3 bus2=156.1.2.3
~ r1=3.97000002861 x1=0.0989999994636 r0=3.97000002861 x0=0.0989999994636 c1=0 c0=0 length=0.000219099994865 units=km

New Line.LINE156 phases=3 bus1=150.1.2.3 bus2=157.1.2.3
~ r1=1.14999997616 x1=0.0879999995232 r0=1.20000004768 x0=0.0879999995232 c1=0 c0=0 length=0.000391320005292 units=km

New Line.LINE157 phases=3 bus1=151.1.2.3 bus2=158.1.2.3
~ r1=0.0890000015497 x1=0.0675000026822 r0=0.319000005722 x0=0.0759999975562 c1=0 c0=0 length=0.00947130005807 units=km

New Line.LINE158 phases=3 bus1=152.1.2.3 bus2=159.1.2.3
~ r1=1.14999997616 x1=0.0879999995232 r0=1.20000004768 x0=0.0879999995232 c1=0 c0=0 length=0.000312329997541 units=km

New Line.LINE159 phases=3 bus1=153.1.2.3 bus2=160.1.2.3
~ r1=0.273999989033 x1=0.0729999989271 r0=0.958999991417 x0=0.0790000036359 c1=0 c0=0 length=0.000314389995765 units=km

New Line.LINE160 phases=3 bus1=154.1.2.3 bus2=161.1.2.3
~ r1=0.165999993682 x1=0.0680000036955 r0=0.579999983311 x0=0.0780000016093 c1=0 c0=0 length=0.000122559998999 units=km

New Line.LINE161 phases=3 bus1=155.1.2.3 bus2=162.1.2.3
~ r1=1.14999997616 x1=0.0879999995232 r0=1.20000004768 x0=0.0879999995232 c1=0 c0=0 length=0.0117421997711 units=km

New Line.LINE162 phases=3 bus1=155.1.2.3 bus2=163.1.2.3
~ r1=0.0890000015497 x1=0.0675000026822 r0=0.319000005722 x0=0.0759999975562 c1=0 c0=0 length=0.00528440019116 units=km

New Line.LINE163 phases=3 bus1=156.1.2.3 bus2=164.1.2.3
~ r1=3.97000002861 x1=0.0989999994636 r0=3.97000002861 x0=0.0989999994636 c1=0 c0=0 length=0.000203420000616 units=km

New Line.LINE164 phases=3 bus1=157.1.2.3 bus2=165.1.2.3
~ r1=1.14999997616 x1=0.0879999995232 r0=1.20000004768 x0=0.0879999995232 c1=0 c0=0 length=0.000471779989311 units=km

New Line.LINE165 phases=3 bus1=158.1.2.3 bus2=166.1.2.3
~ r1=0.0890000015497 x1=0.0675000026822 r0=0.319000005722 x0=0.0759999975562 c1=0 c0=0 length=0.00328990002163 units=km

New Line.LINE166 phases=3 bus1=159.1.2.3 bus2=167.1.2.3
~ r1=1.14999997616 x1=0.0879999995232 r0=1.20000004768 x0=0.0879999995232 c1=0 c0=0 length=0.000285329995677 units=km

New Line.LINE167 phases=3 bus1=160.1.2.3 bus2=168.1.2.3
~ r1=0.273999989033 x1=0.0729999989271 r0=0.958999991417 x0=0.0790000036359 c1=0 c0=0 length=0.00178609997965 units=km

New Line.LINE168 phases=3 bus1=161.1.2.3 bus2=169.1.2.3
~ r1=0.165999993682 x1=0.0680000036955 r0=0.579999983311 x0=0.0780000016093 c1=0 c0=0 length=0.000249580014497 units=km

New Line.LINE169 phases=3 bus1=162.1.2.3 bus2=170.1.2.3
~ r1=1.14999997616 x1=0.0879999995232 r0=1.20000004768 x0=0.0879999995232 c1=0 c0=0 length=0.00221830001101 units=km

New Line.LINE170 phases=3 bus1=163.1.2.3 bus2=171.1.2.3
~ r1=0.0890000015497 x1=0.0675000026822 r0=0.319000005722 x0=0.0759999975562 c1=0 c0=0 length=0.00701559986919 units=km

New Line.LINE171 phases=3 bus1=164.1.2.3 bus2=172.1.2.3
~ r1=3.97000002861 x1=0.0989999994636 r0=3.97000002861 x0=0.0989999994636 c1=0 c0=0 length=0.000172700005351 units=km
